=========================================================================================================

[10A01]
*********************************************************************************************************************
*SRC=10A01;DI_10A01;Diodes;Si;  50.0V  10.0A  3.00us   Diodes Inc. 10A Rectifier
.MODEL DI_10A01 D  ( IS=844n RS=2.06m BV=50.0 IBV=10.0u
+ CJO=277p  M=0.333 N=2.06 TT=4.32u )
*********************************************************************************************************************

=========================================================================================================

[10A02]
*********************************************************************************************************************
*SRC=10A02;DI_10A02;Diodes;Si;  100V  10.0A  3.00us   Diodes Inc. 10A Rectifier
.MODEL DI_10A02 D  ( IS=844n RS=2.06m BV=100 IBV=10.0u
+ CJO=277p  M=0.333 N=2.06 TT=4.32u )
*********************************************************************************************************************

=========================================================================================================

[10A04]
*********************************************************************************************************************
*SRC=10A04;DI_10A04;Diodes;Si;  400V  10.0A  3.00us   Diodes Inc. 10A Rectifier
.MODEL DI_10A04 D  ( IS=844n RS=2.06m BV=400 IBV=10.0u
+ CJO=277p  M=0.333 N=2.06 TT=4.32u )
*********************************************************************************************************************

=========================================================================================================

[10A05]
*********************************************************************************************************************
*SRC=10A05;DI_10A05;Diodes;Si;  600V  10.0A  3.00us   Diodes Inc. 10A Rectifier
.MODEL DI_10A05 D  ( IS=844n RS=2.06m BV=600 IBV=10.0u
+ CJO=148p  M=0.333 N=2.06 TT=4.32u )
*********************************************************************************************************************

=========================================================================================================

[10A06]
*********************************************************************************************************************
*SRC=10A06;DI_10A06;Diodes;Si;  800V  10.0A  3.00us   Diodes Inc. 10A Rectifier
.MODEL DI_10A06 D  ( IS=844n RS=2.06m BV=800 IBV=10.0u
+ CJO=148p  M=0.333 N=2.06 TT=4.32u )
*********************************************************************************************************************

=========================================================================================================

[10A07]
*********************************************************************************************************************
*SRC=10A07;DI_10A07;Diodes;Si;  1.00kV  10.0A  3.00us   Diodes Inc. 10A Rectifier
.MODEL DI_10A07 D  ( IS=844n RS=2.06m BV=1.00k IBV=10.0u
+ CJO=148p  M=0.333 N=2.06 TT=4.32u )
*********************************************************************************************************************

=========================================================================================================

[1N4002G]
***************************************************************************************************************************************
*SRC=1N4002G;DI_1N4002G;Diodes;Si;  100V  1.00A  2.00us   Diodes Inc. Glass Passivated Rectifier
.MODEL DI_1N4002G D  ( IS=65.4p RS=42.2m BV=100 IBV=5.00u
+ CJO=14.8p  M=0.333 N=1.36 TT=2.88u )
***************************************************************************************************************************************

=========================================================================================================

[1N4003]
*SRC=1N4003;DI_1N4003;Diodes;Si;  200V  1.00A  3.00us   Diodes, Inc. diode
.MODEL DI_1N4003 D  ( IS=76.9p RS=42.0m BV=200 IBV=5.00u
+ CJO=39.8p  M=0.333 N=1.45 TT=4.32u )

=========================================================================================================

[1N4003G]
***************************************************************************************************************************************
*SRC=1N4003G;DI_1N4003G;Diodes;Si;  200V  1.00A  2.00us   Diodes Inc. Glass Passivated Rectifier
.MODEL DI_1N4003G D  ( IS=65.4p RS=42.2m BV=200 IBV=5.00u
+ CJO=14.8p  M=0.333 N=1.36 TT=2.88u )
***************************************************************************************************************************************

=========================================================================================================

[1N4004]
*SRC=1N4004;DI_1N4004;Diodes;Si;  400V  1.00A  3.00us   Diodes, Inc. diode
.MODEL DI_1N4004 D  ( IS=76.9p RS=42.0m BV=400 IBV=5.00u
+ CJO=39.8p  M=0.333 N=1.45 TT=4.32u )

=========================================================================================================

[1N4004G]
***************************************************************************************************************************************
*SRC=1N4004G;DI_1N4004G;Diodes;Si;  400V  1.00A  2.00us   Diodes Inc. Glass Passivated Rectifier
.MODEL DI_1N4004G D  ( IS=65.4p RS=42.2m BV=400 IBV=5.00u
+ CJO=14.8p  M=0.333 N=1.36 TT=2.88u )
***************************************************************************************************************************************

=========================================================================================================

[1N4005G]
***************************************************************************************************************************************
*SRC=1N4005G;DI_1N4005G;Diodes;Si;  600V  1.00A  2.00us   Diodes Inc. Glass Passivated Rectifier
.MODEL DI_1N4005G D  ( IS=65.4p RS=42.2m BV=600 IBV=5.00u
+ CJO=14.8p  M=0.333 N=1.36 TT=2.88u )
***************************************************************************************************************************************

=========================================================================================================

[1N4006]
*SRC=1N4006;DI_1N4006;Diodes;Si;  800V  1.00A  3.00us   Diodes, Inc. diode
.MODEL DI_1N4006 D  ( IS=76.9p RS=42.0m BV=800 IBV=5.00u
+ CJO=26.5p  M=0.333 N=1.45 TT=4.32u )

=========================================================================================================

[1N4006G]
***************************************************************************************************************************************
*SRC=1N4006G;DI_1N4006G;Diodes;Si;  800V  1.00A  2.00us   Diodes Inc. Glass Passivated Rectifier
.MODEL DI_1N4006G D  ( IS=65.4p RS=42.2m BV=800 IBV=5.00u
+ CJO=14.8p  M=0.333 N=1.36 TT=2.88u )
***************************************************************************************************************************************

=========================================================================================================

[1N4007G]
***************************************************************************************************************************************
*SRC=1N4007G;DI_1N4007G;Diodes;Si;  1.00kV  1.00A  2.00us   Diodes Inc. Glass Passivated Rectifier
.MODEL DI_1N4007G D  ( IS=65.4p RS=42.2m BV=1.00k IBV=5.00u
+ CJO=14.8p  M=0.333 N=1.36 TT=2.88u )
**************************************************************************************************************************************

.MODEL 1N4148 D 
+ IS = 4.352E-9 
+ N = 1.906 
+ BV = 110 
+ IBV = 0.0001 
+ RS = 0.6458 
+ CJO = 7.048E-13 
+ VJ = 0.869 
+ M = 0.03 
+ FC = 0.5 
+ TT = 3.48E-9 

=========================================================================================================

[6A05]
*SRC=6A05;DI_6A05;Diodes;Si;  50.0V  6.00A  2.00us   Diodes Inc. 
.MODEL DI_6A05 D  ( IS=52.4n RS=7.00m BV=50.0 IBV=10.0u
+ CJO=60.0p  M=0.333 N=1.70 TT=2.88u )

=========================================================================================================

[6A1]
*SRC=6A1;DI_6A1;Diodes;Si;  100V  6.00A  2.00us   Diodes Inc. 
.MODEL DI_6A1 D  ( IS=52.4n RS=7.00m BV=100 IBV=10.0u
+ CJO=60.0p  M=0.333 N=1.70 TT=2.88u )

=========================================================================================================

[6A2]
*SRC=6A2;DI_6A2;Diodes;Si;  200V  6.00A  2.00us   Diodes Inc. 
.MODEL DI_6A2 D  ( IS=52.4n RS=7.00m BV=200 IBV=10.0u
+ CJO=60.0p  M=0.333 N=1.70 TT=2.88u )

=========================================================================================================

[6A4]
*SRC=6A4;DI_6A4;Diodes;Si;  400V  6.00A  2.00us   Diodes Inc. 
.MODEL DI_6A4 D  ( IS=52.4n RS=7.00m BV=400 IBV=10.0u
+ CJO=60.0p  M=0.333 N=1.70 TT=2.88u )

=========================================================================================================

[6A6]
*SRC=6A6;DI_6A6;Diodes;Si;  600V  6.00A  2.00us   Diodes Inc. 
.MODEL DI_6A6 D  ( IS=52.4n RS=7.00m BV=600 IBV=10.0u
+ CJO=60.0p  M=0.333 N=1.70 TT=2.88u )

=========================================================================================================

[6A8]
*SRC=6A8;DI_6A8;Diodes;Si;  800V  6.00A  2.00us   Diodes Inc. 
.MODEL DI_6A8 D  ( IS=52.4n RS=7.00m BV=800 IBV=10.0u
+ CJO=60.0p  M=0.333 N=1.70 TT=2.88u )

=========================================================================================================

[DFLR1600]
*SRC=DFLR1600;DI_DFLR1600;Diodes;Si;  600V  1.00A  3.00us   Diodes Inc Standard Recovery Rectifier
.MODEL DI_DFLR1600 D  ( IS=5.90n RS=44.7m BV=600 IBV=3.00u
+ CJO=18.5p  M=0.333 N=1.88 TT=4.32u )

=========================================================================================================

[PDR3G]
*SRC=PDR3G;DI_PDR3G;Diodes;Si;  400V  3.00A  3.09us   Diodes Inc. Standard Recovery Rectifier
.MODEL DI_PDR3G D  ( IS=5.82n RS=13.9m BV=400 IBV=10.0u
+ CJO=38.5p  M=0.333 N=1.70 TT=4.45u )

=========================================================================================================

[PDR5G]
*SRC=PDR5G;DI_PDR5G;Diodes;Si;  400V  5.00A  3.32us   Diodes Inc. Standard Recovery Rectifier
.MODEL DI_PDR5G D  ( IS=8.05n RS=8.40m BV=400 IBV=10.0u
+ CJO=75.6p  M=0.333 N=1.70 TT=4.78u )

=========================================================================================================

[S1A]
*SRC=S1A;DI_S1A;Diodes;Si;  50.0V  1.00A  3.00us   Diodes Inc. Rectifier
.MODEL DI_S1A D  ( IS=7.31e-018 RS=42.0m BV=50.0 IBV=5.00u
+ CJO=42.4p  M=0.333 N=0.775 TT=4.32u )

=========================================================================================================

[S1AB]
*SRC=S1AB;DI_S1AB;Diodes;Si;  50.0V  1.00A  3.00us   Diodes Inc. Rectifier
.MODEL DI_S1AB D  ( IS=7.31e-018 RS=42.0m BV=50.0 IBV=5.00u
+ CJO=42.4p  M=0.333 N=0.775 TT=4.32u )

=========================================================================================================

[S1B]
*SRC=S1B;DI_S1B;Diodes;Si;  100V  1.00A  3.00us   Diodes Inc. Rectifier
.MODEL DI_S1B D  ( IS=7.31e-018 RS=42.0m BV=100 IBV=5.00u
+ CJO=42.4p  M=0.333 N=0.775 TT=4.32u )

=========================================================================================================

[S1BB]
*SRC=S1BB;DI_S1BB;Diodes;Si;  100V  1.00A  3.00us   Diodes Inc. Rectifier
.MODEL DI_S1BB D  ( IS=7.31e-018 RS=42.0m BV=100 IBV=5.00u
+ CJO=42.4p  M=0.333 N=0.775 TT=4.32u )

=========================================================================================================

[S1D]
*SRC=S1D;DI_S1D;Diodes;Si;  200V  1.00A  3.00us   Diodes Inc. Rectifier
.MODEL DI_S1D D  ( IS=7.31e-018 RS=42.0m BV=200 IBV=5.00u
+ CJO=42.4p  M=0.333 N=0.775 TT=4.32u )

=========================================================================================================

[S1DB]
*SRC=S1DB;DI_S1DB;Diodes;Si;  200V  1.00A  3.00us   Diodes Inc. Rectifier
.MODEL DI_S1DB D  ( IS=7.31e-018 RS=42.0m BV=200 IBV=5.00u
+ CJO=42.4p  M=0.333 N=0.775 TT=4.32u )

=========================================================================================================

[S1G]
*TITLE=S1G-13-F
*DATE=19/11/2013
*ORIGIN=DZSL_DPG_SU
*SIMULATOR=SIMETRIX
*VERSION=1



.model S1G-13-F  D(IS=.0005n RS=0.03 CJO=17p M=0.5 VJ=0.75 N=1.1 IKF=.15 ISR=.01u
+ BV=401 IBV=100u TT=150n EG=.95 TRS1=.1m)



*                (c)  2013 Diodes Inc
*
*   The copyright in these models  and  the designs embodied belong
*   to Diodes Incorporated (" Zetex ").  They  are  supplied
*   free of charge by Zetex for the purpose of research and design
*   and may be used or copied intact  (including this notice)  for
*   that purpose only.  All other rights are reserved.  The models
*   are believed accurate but no condition  or warranty  as to their
*   merchantability or fitness for purpose is given and no liability
*   in respect of any use is accepted by Diodes Incorporated, its distributors
*   or agents.
*
*   Diodes Zetex Semiconductors Ltd, Zetex Technology Park, Chadderton,
*   Oldham, United Kingdom, OL9 9LL


=========================================================================================================

[S1GB]
*SRC=S1GB;DI_S1GB;Diodes;Si;  400V  1.00A  3.00us   Diodes Inc. Rectifier
.MODEL DI_S1GB D  ( IS=7.31e-018 RS=42.0m BV=400 IBV=5.00u
+ CJO=42.4p  M=0.333 N=0.775 TT=4.32u )

=========================================================================================================

[S1J]
*SRC=S1J;DI_S1J;Diodes;Si;  600V  1.00A  3.00us   Diodes Inc. Rectifier
.MODEL DI_S1J D  ( IS=7.31e-018 RS=42.0m BV=600 IBV=5.00u
+ CJO=42.4p  M=0.333 N=0.775 TT=4.32u )

=========================================================================================================

[S1JB]
*SRC=S1JB;DI_S1JB;Diodes;Si;  600V  1.00A  3.00us   Diodes Inc. Rectifier
.MODEL DI_S1JB D  ( IS=7.31e-018 RS=42.0m BV=600 IBV=5.00u
+ CJO=42.4p  M=0.333 N=0.775 TT=4.32u )

=========================================================================================================

[S1K]
*SRC=S1K;DI_S1K;Diodes;Si;  800V  1.00A  3.00us   Diodes Inc. Rectifier
.MODEL DI_S1K D  ( IS=7.31e-018 RS=42.0m BV=800 IBV=5.00u
+ CJO=42.4p  M=0.333 N=0.775 TT=4.32u )

=========================================================================================================

[S1KB]
*SRC=S1KB;DI_S1KB;Diodes;Si;  800V  1.00A  3.00us   Diodes Inc. Rectifier
.MODEL DI_S1KB D  ( IS=7.31e-018 RS=42.0m BV=800 IBV=5.00u
+ CJO=42.4p  M=0.333 N=0.775 TT=4.32u )

=========================================================================================================

[S1M]
*SRC=S1M;DI_S1M;Diodes;Si;  1.00kV  1.00A  3.00us   Diodes Inc. Rectifier
.MODEL DI_S1M D  ( IS=7.31e-018 RS=42.0m BV=1.00k IBV=5.00u
+ CJO=42.4p  M=0.333 N=0.775 TT=4.32u )

=========================================================================================================

[S1MB]
*SRC=S1MB;DI_S1MB;Diodes;Si;  1.00kV  1.00A  3.00us   Diodes Inc. Rectifier
.MODEL DI_S1MB D  ( IS=7.31e-018 RS=42.0m BV=1.00k IBV=5.00u
+ CJO=42.4p  M=0.333 N=0.775 TT=4.32u )

=========================================================================================================

[S2A]
*SRC=S2A;DI_S2A;Diodes;Si;  50.0V  1.50A  3.00us   Diodes Inc. 
.MODEL DI_S2A D  ( IS=1.30u RS=8.92m BV=50.0 IBV=5.00u
+ CJO=37.0p  M=0.333 N=2.58 TT=4.32u )

=========================================================================================================

[S2B]
*SRC=S2B;DI_S2B;Diodes;Si;  100V  1.50A  3.00us   Diodes Inc. 
.MODEL DI_S2B D  ( IS=1.30u RS=8.92m BV=100 IBV=5.00u
+ CJO=37.0p  M=0.333 N=2.58 TT=4.32u )

=========================================================================================================

[S2BA]
*SRC=S2BA;DI_S2BA;Diodes;Si;  100V  1.50A  3.00us   Diodes Inc. 
.MODEL DI_S2BA D  ( IS=1.30u RS=8.92m BV=100 IBV=5.00u
+ CJO=37.0p  M=0.333 N=2.58 TT=4.32u )

=========================================================================================================

[S2D]
*SRC=S2D;DI_S2D;Diodes;Si;  200V  1.50A  3.00us   Diodes Inc. 
.MODEL DI_S2D D  ( IS=1.30u RS=8.92m BV=200 IBV=5.00u
+ CJO=37.0p  M=0.333 N=2.58 TT=4.32u )

=========================================================================================================

[S2DA]
*SRC=S2DA;DI_S2DA;Diodes;Si;  200V  1.50A  3.00us   Diodes Inc. 
.MODEL DI_S2DA D  ( IS=1.30u RS=8.92m BV=200 IBV=5.00u
+ CJO=37.0p  M=0.333 N=2.58 TT=4.32u )

=========================================================================================================

[S2K]
*SRC=S2K;DI_S2K;Diodes;Si;  800V  1.50A  3.00us   Diodes Inc. 
.MODEL DI_S2K D  ( IS=1.30u RS=8.92m BV=800 IBV=5.00u
+ CJO=37.0p  M=0.333 N=2.58 TT=4.32u )

=========================================================================================================

[S3A]
*SRC=S3A;DI_S3A;Diodes;Si;  50.0V  3.00A  3.00us   Diodes Inc. -
.MODEL DI_S3A D  ( IS=1.37n RS=14.0m BV=50.0 IBV=10.0u
+ CJO=74.0p  M=0.333 N=1.70 TT=4.32u )

=========================================================================================================

[S3AB]
*SRC=S3A;DI_S3A;Diodes;Si;  50.0V  3.00A  3.00us   Diodes Inc. -
.MODEL DI_S3A D  ( IS=1.37n RS=14.0m BV=50.0 IBV=10.0u
+ CJO=74.0p  M=0.333 N=1.70 TT=4.32u )

=========================================================================================================

[S3B]
*SRC=S3BB;S3BB;Diodes;Si;  100V  3.00A  3.00us   Diodes Inc. -
.MODEL S3BB D  ( IS=1.37n RS=14.0m BV=100 IBV=10.0u
+ CJO=74.0p  M=0.333 N=1.70 TT=4.32u )

=========================================================================================================

[S3BB]
*SRC=S3BB;S3BB;Diodes;Si;  100V  3.00A  3.00us   Diodes Inc. -
.MODEL S3BB D  ( IS=1.37n RS=14.0m BV=100 IBV=10.0u
+ CJO=74.0p  M=0.333 N=1.70 TT=4.32u )

=========================================================================================================

[S3DB]
*SRC=S3DB;DI_S3DB;Diodes;Si;  200V  3.00A  3.00us   Diodes Inc. -
.MODEL DI_S3DB D  ( IS=1.37n RS=14.0m BV=200 IBV=10.0u
+ CJO=74.0p  M=0.333 N=1.70 TT=4.32u )

=========================================================================================================

[S3GB]
*SRC=S3GB;DI_S3GB;Diodes;Si;  400V  3.00A  3.00us   Diodes Inc. -
.MODEL DI_S3GB D  ( IS=1.37n RS=14.0m BV=400 IBV=10.0u
+ CJO=74.0p  M=0.333 N=1.70 TT=4.32u )

=========================================================================================================

[S3KB]
*SRC=S3K;DI_S3K;Diodes;Si;  800V  3.00A  3.00us   Diodes Inc. -
.MODEL DI_S3K D  ( IS=1.37n RS=14.0m BV=800 IBV=10.0u
+ CJO=74.0p  M=0.333 N=1.70 TT=4.32u )

=========================================================================================================

[S3M]
*SRC=S3M;DI_S3M;Diodes;Si;  1.00kV  3.00A  3.00us   Diodes Inc. -
.MODEL DI_S3M D  ( IS=1.37n RS=14.0m BV=1.00k IBV=10.0u
+ CJO=74.0p  M=0.333 N=1.70 TT=4.32u )

=========================================================================================================

[S3MB]
*SRC=S3M;DI_S3M;Diodes;Si;  1.00kV  3.00A  3.00us   Diodes Inc. -
.MODEL DI_S3M D  ( IS=1.37n RS=14.0m BV=1.00k IBV=10.0u
+ CJO=74.0p  M=0.333 N=1.70 TT=4.32u )

=========================================================================================================

[S5AC]
*SRC=S5AC;DI_S5AC;Diodes;Si;  50.0V  5.00A  2.00us   Diodes Inc. -
.MODEL DI_S5AC D  ( IS=2.28n RS=8.40m BV=50.0 IBV=10.0u
+ CJO=74.0p  M=0.333 N=1.70 TT=2.88u )

=========================================================================================================

[S5BC]
*SRC=S5BC;DI_S5BC;Diodes;Si;  100V  5.00A  2.00us   Diodes Inc. -
.MODEL DI_S5BC D  ( IS=2.28n RS=8.40m BV=100 IBV=10.0u
+ CJO=74.0p  M=0.333 N=1.70 TT=2.88u )

=========================================================================================================

[S5DC]
*SRC=S5DC;DI_S5DC;Diodes;Si;  200V  5.00A  2.00us   Diodes Inc. -
.MODEL DI_S5DC D  ( IS=2.28n RS=8.40m BV=200 IBV=10.0u
+ CJO=74.0p  M=0.333 N=1.70 TT=2.88u )

=========================================================================================================

[S5GC]
*SRC=S5GC;DI_S5GC;Diodes;Si;  400V  5.00A  2.00us   Diodes Inc. 
.MODEL DI_S5GC D  ( IS=2.28n RS=8.40m BV=400 IBV=10.0u
+ CJO=74.0p  M=0.333 N=1.70 TT=2.88u )

=========================================================================================================

[S5JC]
*SRC=S5JC;DI_S5JC;Diodes;Si;  600V  5.00A  2.00us   Diodes Inc. -
.MODEL DI_S5JC D  ( IS=2.28n RS=8.40m BV=600 IBV=10.0u
+ CJO=74.0p  M=0.333 N=1.70 TT=2.88u )

=========================================================================================================

[S5KC]
*SRC=S5KC;DI_S5KC;Diodes;Si;  800V  5.00A  2.00us   Diodes Inc. -
.MODEL DI_S5KC D  ( IS=2.28n RS=8.40m BV=800 IBV=10.0u
+ CJO=74.0p  M=0.333 N=1.70 TT=2.88u )

=========================================================================================================

[S5MC]
*SRC=S5MC;DI_S5MC;Diodes;Si;  1.00kV  5.00A  2.00us   Diodes Inc. -
.MODEL DI_S5MC D  ( IS=2.28n RS=8.40m BV=1.00k IBV=10.0u
+ CJO=74.0p  M=0.333 N=1.70 TT=2.88u )

=========================================================================================================

[S8KC]
*SRC=S8KC;S8KC;Diodes;Si;  800V  8.00A  3.00us   Diodes Inc 
.MODEL S8KC D  ( IS=777n RS=8.87m BV=800 IBV=10.0u
+ CJO=74.0  M=0.333 N=1.65 TT=4.32u )

=========================================================================================================

[S8MC]
*SRC=S8MC;S8MC;Diodes;Si;  1.00kV  8.00A  3.00us   Diodes Inc 
.MODEL S8MC D  ( IS=777n RS=8.87m BV=1.00k IBV=10.0u
+ CJO=74.0  M=0.333 N=1.65 TT=4.32u

=========================================================================================================

[PDR5K]
*TITLE=PDR5K
*DATE=1/04/2015
*ORIGIN=DZSL_DPG_SU
*SIMULATOR=SIMETRIX
*VERSION=1


.MODEL PDR5K D(IS=1n RS=.006 BV=850 IBV=50u CJO=88p M=.4 VJ=.6 N=1.5 ISR=2n TRS1=0 XTI1=3 IKF=10 TT=2u EG=1.18)

*                (c)  2015 Diodes Inc
*
*   The copyright in these models  and  the designs embodied belong
*   to Diodes Incorporated (" Zetex ").  They  are  supplied
*   free of charge by Zetex for the purpose of research and design
*   and may be used or copied intact  (including this notice)  for
*   that purpose only.  All other rights are reserved.  The models
*   are believed accurate but no condition  or warranty  as to their
*   merchantability or fitness for purpose is given and no liability
*   in respect of any use is accepted by Diodes Incorporated, its distributors
*   or agents.
*
*   Diodes Zetex Semiconductors Ltd, Zetex Technology Park, Chadderton,
*   Oldham, United Kingdom, OL9 9LL
*

=========================================================================================================

[PD3R1600]
*PD3R1600 Spice Model v1.0 Last Revised 04/02/2014  Diodes Inc SURFACE MOUNT STANDARD RECTIFIER

.MODEL DI_PD3R1600 D  ( IS=240.8p RS=22.56m BV=660 IBV=10
+ CJO=5.000n  M=528.1m N=1.620 TT=10.00n  EG=480m VJ=139.2m  )

*                (c)  2014 Diodes Incorporated
*
*   The copyright in these models  and  the designs embodied belong
*   to Diodes Incorporated (" Diodes ").  They  are  supplied
*   free of charge by Diodes for the purpose of research and design
*   and may be used or copied intact  (including this notice)  for
*   that purpose only.  All other rights are reserved. The models
*   are believed accurate but  no condition  or warranty  as to their
*   merchantability or fitness for purpose is given and no liability
*   in respect of any use is accepted by Diodes Incorporated, its distributors
*   or agents.
*
*   Diodes Taiwan Inc.7F.,No. 50,Min-Chuan Road,Hsin-Tien District,New Taipei City 23141, Taiwan

=========================================================================================================

[10A03]
*********************************************************************************************************************
*SRC=10A03;DI_10A03;Diodes;Si;  200V  10.0A  3.00us   Diodes Inc. 10A Rectifier
.MODEL DI_10A03 D  ( IS=844n RS=2.06m BV=200 IBV=10.0u
+ CJO=277p  M=0.333 N=2.06 TT=4.32u )
*********************************************************************************************************************

=========================================================================================================

[1N4001G]
***************************************************************************************************************************************
*SRC=1N4001G;DI_1N4001G;Diodes;Si;  50.0V  1.00A  2.00us   Diodes Inc. Glass Passivated Rectifier
.MODEL DI_1N4001G D  ( IS=65.4p RS=42.2m BV=50.0 IBV=5.00u
+ CJO=14.8p  M=0.333 N=1.36 TT=2.88u )
***************************************************************************************************************************************

=========================================================================================================

[1N4007]
*SRC=1N4007;DI_1N4007;Diodes;Si;  1.00kV  1.00A  3.00us   Diodes, Inc. diode
.MODEL DI_1N4007 D  ( IS=76.9p RS=42.0m BV=1.00k IBV=5.00u
+ CJO=26.5p  M=0.333 N=1.45 TT=4.32u )

=========================================================================================================

[6A10]
*SRC=6A10;DI_6A10;Diodes;Si;  1.00kV  6.00A  2.00us   Diodes Inc. 
.MODEL DI_6A10 D  ( IS=52.4n RS=7.00m BV=1.00k IBV=10.0u
+ CJO=60.0p  M=0.333 N=1.70 TT=2.88u )

=========================================================================================================

[S2G]
*SRC=S2G;DI_S2G;Diodes;Si;  400V  1.50A  3.00us   Diodes Inc. 
.MODEL DI_S2G D  ( IS=1.30u RS=8.92m BV=400 IBV=5.00u
+ CJO=37.0p  M=0.333 N=2.58 TT=4.32u )

=========================================================================================================

[S2J]
*SRC=S2J;DI_S2J;Diodes;Si;  600V  1.50A  3.00us   Diodes Inc. 
.MODEL DI_S2J D  ( IS=1.30u RS=8.92m BV=600 IBV=5.00u
+ CJO=37.0p  M=0.333 N=2.58 TT=4.32u )

=========================================================================================================

[S2JA]
*SRC=S2JA;DI_S2JA;Diodes;Si;  600V  1.50A  3.00us   Diodes Inc. 
.MODEL DI_S2JA D  ( IS=1.30u RS=8.92m BV=600 IBV=5.00u
+ CJO=37.0p  M=0.333 N=2.58 TT=4.32u )

=========================================================================================================

[S2KA]
*SRC=S2KA;DI_S2KA;Diodes;Si;  800V  1.50A  3.00us   Diodes Inc. 
.MODEL DI_S2KA D  ( IS=1.30u RS=8.92m BV=800 IBV=5.00u
+ CJO=37.0p  M=0.333 N=2.58 TT=4.32u )

=========================================================================================================

[S2M]
*SRC=S2M;DI_S2M;Diodes;Si;  1.00kV  1.50A  3.00us   Diodes Inc. 
.MODEL DI_S2M D  ( IS=1.30u RS=8.92m BV=1.00k IBV=5.00u
+ CJO=37.0p  M=0.333 N=2.58 TT=4.32u )

=========================================================================================================

[S2MA]
*SRC=S2MA;DI_S2MA;Diodes;Si;  1.00kV  1.50A  3.00us   Diodes Inc. 
.MODEL DI_S2MA D  ( IS=1.30u RS=8.92m BV=1.00k IBV=5.00u
+ CJO=37.0p  M=0.333 N=2.58 TT=4.32u )

=========================================================================================================

[S3D]
*SRC=S3D;DI_S3D;Diodes;Si;  200V  3.00A  3.00us   Diodes Inc. -
.MODEL DI_S3D D  ( IS=1.37n RS=14.0m BV=200 IBV=10.0u
+ CJO=74.0p  M=0.333 N=1.70 TT=4.32u )

=========================================================================================================

[S3G]
*SRC=S3GB;DI_S3GB;Diodes;Si;  400V  3.00A  3.00us   Diodes Inc. -
.MODEL DI_S3GB D  ( IS=1.37n RS=14.0m BV=400 IBV=10.0u
+ CJO=74.0p  M=0.333 N=1.70 TT=4.32u )

=========================================================================================================

[S3K]
*SRC=S3K;DI_S3K;Diodes;Si;  800V  3.00A  3.00us   Diodes Inc. -
.MODEL DI_S3K D  ( IS=1.37n RS=14.0m BV=800 IBV=10.0u
+ CJO=74.0p  M=0.333 N=1.70 TT=4.32u )

=========================================================================================================

[1N4002]
*SRC=1N4002;DI_1N4002;Diodes;Si;  100V  1.00A  3.00us   Diodes, Inc. diode
.MODEL DI_1N4002 D  ( IS=76.9p RS=42.0m BV=100 IBV=5.00u
+ CJO=39.8p  M=0.333 N=1.45 TT=4.32u )

=========================================================================================================

[1N4005]
*SRC=1N4005;DI_1N4005;Diodes;Si;  600V  1.00A  3.00us   Diodes, Inc. diode
.MODEL DI_1N4005 D  ( IS=76.9p RS=42.0m BV=600 IBV=5.00u
+ CJO=26.5p  M=0.333 N=1.45 TT=4.32u )

=========================================================================================================

[S2AA]
*SRC=S2AA;DI_S2AA;Diodes;Si;  50.0V  1.50A  3.00us   Diodes Inc. 
.MODEL DI_S2AA D  ( IS=1.30u RS=8.92m BV=50.0 IBV=5.00u
+ CJO=37.0p  M=0.333 N=2.58 TT=4.32u )

=========================================================================================================

[S2GA]
*SRC=S2GA;DI_S2GA;Diodes;Si;  400V  1.50A  3.00us   Diodes Inc. 
.MODEL DI_S2GA D  ( IS=1.30u RS=8.92m BV=400 IBV=5.00u
+ CJO=37.0p  M=0.333 N=2.58 TT=4.32u )

=========================================================================================================

[DFLR1200]
*SRC=DFLR1200;DI_DFLR1200;Diodes;Si;  200V  1.00A  3.00us   Diodes Inc Standard Recovery Rectifier
.MODEL DI_DFLR1200 D  ( IS=5.90n RS=44.7m BV=200 IBV=3.00u
+ CJO=18.5p  M=0.333 N=1.88 TT=4.32u )

=========================================================================================================

[DFLR1400]
*SRC=DFLR1400;DI_DFLR1400;Diodes;Si;  400V  1.00A  3.00us   Diodes Inc Standard Recovery Rectifier
.MODEL DI_DFLR1400 D  ( IS=5.90n RS=44.7m BV=400 IBV=3.00u
+ CJO=18.5p  M=0.333 N=1.88 TT=4.32u )

=========================================================================================================
